powerfulcases/cases/matpower/case533mt_lo/case533mt_lo.raw
0, 16.6667, 33, 0, 0, 60  / 28-Jan-2026 21:52:43 - MATPOWER 8.1


     1, 'BUS 1       ',  77.94229, 3,    1,    1, 1,           1,           0,    1,    1,    1,    1
     2, 'BUS 2       ',  6.928203, 1,    1,    1, 1,           1,           0, 1.05, 0.95, 1.05, 0.95
     3, 'BUS 3       ',  6.928203, 1,    1,    1, 1,           1,           0, 1.05, 0.95, 1.05, 0.95
     4, 'BUS 4       ',  77.94229, 1,    1,    1, 1,           1,           0, 1.05, 0.95, 1.05, 0.95
     5, 'BUS 5       ',  6.928203, 1,    1,    1, 1,           1,           0, 1.05, 0.95, 1.05, 0.95
     6, 'BUS 6       ',  6.928203, 1,    1,    1, 1,           1,           0, 1.05, 0.95, 1.05, 0.95
     7, 'BUS 7       ',  6.928203, 1,    1,    1, 1,           1,           0, 1.05, 0.95, 1.05, 0.95
     8, 'BUS 8       ',  6.928203, 1,    1,    1, 1,           1,           0, 1.05, 0.95, 1.05, 0.95
     9, 'BUS 9       ',  6.928203, 1,    1,    1, 1,           1,           0, 1.05, 0.95, 1.05, 0.95
    10, 'BUS 10      ',  6.928203, 1,    1,    1, 1,           1,           0, 1.05, 0.95, 1.05, 0.95
    11, 'BUS 11      ',  6.928203, 1,    1,    1, 1,           1,           0, 1.05, 0.95, 1.05, 0.95
    12, 'BUS 12      ',  6.928203, 1,    1,    1, 1,           1,           0, 1.05, 0.95, 1.05, 0.95
    13, 'BUS 13      ',  6.928203, 1,    1,    1, 1,           1,           0, 1.05, 0.95, 1.05, 0.95
    14, 'BUS 14      ',  6.928203, 1,    1,    1, 1,           1,           0, 1.05, 0.95, 1.05, 0.95
    15, 'BUS 15      ',  6.928203, 1,    1,    1, 1,           1,           0, 1.05, 0.95, 1.05, 0.95
    16, 'BUS 16      ',  6.928203, 1,    1,    1, 1,           1,           0, 1.05, 0.95, 1.05, 0.95
    17, 'BUS 17      ',  6.928203, 1,    1,    1, 1,           1,           0, 1.05, 0.95, 1.05, 0.95
    18, 'BUS 18      ',  6.928203, 1,    1,    1, 1,           1,           0, 1.05, 0.95, 1.05, 0.95
    19, 'BUS 19      ',  6.928203, 1,    1,    1, 1,           1,           0, 1.05, 0.95, 1.05, 0.95
    20, 'BUS 20      ',  6.928203, 1,    1,    1, 1,           1,           0, 1.05, 0.95, 1.05, 0.95
    21, 'BUS 21      ',  6.928203, 1,    1,    1, 1,           1,           0, 1.05, 0.95, 1.05, 0.95
    22, 'BUS 22      ',  6.928203, 1,    1,    1, 1,           1,           0, 1.05, 0.95, 1.05, 0.95
    23, 'BUS 23      ',  6.928203, 1,    1,    1, 1,           1,           0, 1.05, 0.95, 1.05, 0.95
    24, 'BUS 24      ',  6.928203, 1,    1,    1, 1,           1,           0, 1.05, 0.95, 1.05, 0.95
    25, 'BUS 25      ',  6.928203, 1,    1,    1, 1,           1,           0, 1.05, 0.95, 1.05, 0.95
    26, 'BUS 26      ',  6.928203, 1,    1,    1, 1,           1,           0, 1.05, 0.95, 1.05, 0.95
    27, 'BUS 27      ',  6.928203, 1,    1,    1, 1,           1,           0, 1.05, 0.95, 1.05, 0.95
    28, 'BUS 28      ',  6.928203, 1,    1,    1, 1,           1,           0, 1.05, 0.95, 1.05, 0.95
    29, 'BUS 29      ',  6.928203, 1,    1,    1, 1,           1,           0, 1.05, 0.95, 1.05, 0.95
    30, 'BUS 30      ',  6.928203, 1,    1,    1, 1,           1,           0, 1.05, 0.95, 1.05, 0.95
    31, 'BUS 31      ',  6.928203, 1,    1,    1, 1,           1,           0, 1.05, 0.95, 1.05, 0.95
    32, 'BUS 32      ',  6.928203, 1,    1,    1, 1,           1,           0, 1.05, 0.95, 1.05, 0.95
    33, 'BUS 33      ',  6.928203, 1,    1,    1, 1,           1,           0, 1.05, 0.95, 1.05, 0.95
    34, 'BUS 34      ',  6.928203, 1,    1,    1, 1,           1,           0, 1.05, 0.95, 1.05, 0.95
    35, 'BUS 35      ',  6.928203, 1,    1,    1, 1,           1,           0, 1.05, 0.95, 1.05, 0.95
    36, 'BUS 36      ',  6.928203, 1,    1,    1, 1,           1,           0, 1.05, 0.95, 1.05, 0.95
    37, 'BUS 37      ',  6.928203, 1,    1,    1, 1,           1,           0, 1.05, 0.95, 1.05, 0.95
    38, 'BUS 38      ',  6.928203, 1,    1,    1, 1,           1,           0, 1.05, 0.95, 1.05, 0.95
    39, 'BUS 39      ',  6.928203, 1,    1,    1, 1,           1,           0, 1.05, 0.95, 1.05, 0.95
    40, 'BUS 40      ',  6.928203, 1,    1,    1, 1,           1,           0, 1.05, 0.95, 1.05, 0.95
    41, 'BUS 41      ',  6.928203, 1,    1,    1, 1,           1,           0, 1.05, 0.95, 1.05, 0.95
    42, 'BUS 42      ',  6.928203, 1,    1,    1, 1,           1,           0, 1.05, 0.95, 1.05, 0.95
    43, 'BUS 43      ',  6.928203, 1,    1,    1, 1,           1,           0, 1.05, 0.95, 1.05, 0.95
    44, 'BUS 44      ',  6.928203, 1,    1,    1, 1,           1,           0, 1.05, 0.95, 1.05, 0.95
    45, 'BUS 45      ',  6.928203, 1,    1,    1, 1,           1,           0, 1.05, 0.95, 1.05, 0.95
    46, 'BUS 46      ',  6.928203, 1,    1,    1, 1,           1,           0, 1.05, 0.95, 1.05, 0.95
    47, 'BUS 47      ',  6.928203, 1,    1,    1, 1,           1,           0, 1.05, 0.95, 1.05, 0.95
    48, 'BUS 48      ',  6.928203, 1,    1,    1, 1,           1,           0, 1.05, 0.95, 1.05, 0.95
    49, 'BUS 49      ',  6.928203, 1,    1,    1, 1,           1,           0, 1.05, 0.95, 1.05, 0.95
    50, 'BUS 50      ',  6.928203, 1,    1,    1, 1,           1,           0, 1.05, 0.95, 1.05, 0.95
    51, 'BUS 51      ',  6.928203, 1,    1,    1, 1,           1,           0, 1.05, 0.95, 1.05, 0.95
    52, 'BUS 52      ',  6.928203, 1,    1,    1, 1,           1,           0, 1.05, 0.95, 1.05, 0.95
    53, 'BUS 53      ',  6.928203, 1,    1,    1, 1,           1,           0, 1.05, 0.95, 1.05, 0.95
    54, 'BUS 54      ',  6.928203, 1,    1,    1, 1,           1,           0, 1.05, 0.95, 1.05, 0.95
    55, 'BUS 55      ',  6.928203, 1,    1,    1, 1,           1,           0, 1.05, 0.95, 1.05, 0.95
    56, 'BUS 56      ',  6.928203, 1,    1,    1, 1,           1,           0, 1.05, 0.95, 1.05, 0.95
    57, 'BUS 57      ',  6.928203, 1,    1,    1, 1,           1,           0, 1.05, 0.95, 1.05, 0.95
    58, 'BUS 58      ',  6.928203, 1,    1,    1, 1,           1,           0, 1.05, 0.95, 1.05, 0.95
    59, 'BUS 59      ',  6.928203, 1,    1,    1, 1,           1,           0, 1.05, 0.95, 1.05, 0.95
    60, 'BUS 60      ',  6.928203, 1,    1,    1, 1,           1,           0, 1.05, 0.95, 1.05, 0.95
    61, 'BUS 61      ',  6.928203, 1,    1,    1, 1,           1,           0, 1.05, 0.95, 1.05, 0.95
    62, 'BUS 62      ',  6.928203, 1,    1,    1, 1,           1,           0, 1.05, 0.95, 1.05, 0.95
    63, 'BUS 63      ',  6.928203, 1,    1,    1, 1,           1,           0, 1.05, 0.95, 1.05, 0.95
    64, 'BUS 64      ',  6.928203, 1,    1,    1, 1,           1,           0, 1.05, 0.95, 1.05, 0.95
    65, 'BUS 65      ',  6.928203, 1,    1,    1, 1,           1,           0, 1.05, 0.95, 1.05, 0.95
    66, 'BUS 66      ',  6.928203, 1,    1,    1, 1,           1,           0, 1.05, 0.95, 1.05, 0.95
    67, 'BUS 67      ',  6.928203, 1,    1,    1, 1,           1,           0, 1.05, 0.95, 1.05, 0.95
    68, 'BUS 68      ',  6.928203, 1,    1,    1, 1,           1,           0, 1.05, 0.95, 1.05, 0.95
    69, 'BUS 69      ',  6.928203, 1,    1,    1, 1,           1,           0, 1.05, 0.95, 1.05, 0.95
    70, 'BUS 70      ',  6.928203, 1,    1,    1, 1,           1,           0, 1.05, 0.95, 1.05, 0.95
    71, 'BUS 71      ',  6.928203, 1,    1,    1, 1,           1,           0, 1.05, 0.95, 1.05, 0.95
    72, 'BUS 72      ',  6.928203, 1,    1,    1, 1,           1,           0, 1.05, 0.95, 1.05, 0.95
    73, 'BUS 73      ',  6.928203, 1,    1,    1, 1,           1,           0, 1.05, 0.95, 1.05, 0.95
    74, 'BUS 74      ',  6.928203, 1,    1,    1, 1,           1,           0, 1.05, 0.95, 1.05, 0.95
    75, 'BUS 75      ',  6.928203, 1,    1,    1, 1,           1,           0, 1.05, 0.95, 1.05, 0.95
    76, 'BUS 76      ',  6.928203, 1,    1,    1, 1,           1,           0, 1.05, 0.95, 1.05, 0.95
    77, 'BUS 77      ',  6.928203, 1,    1,    1, 1,           1,           0, 1.05, 0.95, 1.05, 0.95
    78, 'BUS 78      ',  6.928203, 1,    1,    1, 1,           1,           0, 1.05, 0.95, 1.05, 0.95
    79, 'BUS 79      ',  6.928203, 1,    1,    1, 1,           1,           0, 1.05, 0.95, 1.05, 0.95
    80, 'BUS 80      ',  6.928203, 1,    1,    1, 1,           1,           0, 1.05, 0.95, 1.05, 0.95
    81, 'BUS 81      ',  6.928203, 1,    1,    1, 1,           1,           0, 1.05, 0.95, 1.05, 0.95
    82, 'BUS 82      ',  6.928203, 1,    1,    1, 1,           1,           0, 1.05, 0.95, 1.05, 0.95
    83, 'BUS 83      ',  6.928203, 1,    1,    1, 1,           1,           0, 1.05, 0.95, 1.05, 0.95
    84, 'BUS 84      ',  6.928203, 1,    1,    1, 1,           1,           0, 1.05, 0.95, 1.05, 0.95
    85, 'BUS 85      ',  6.928203, 1,    1,    1, 1,           1,           0, 1.05, 0.95, 1.05, 0.95
    86, 'BUS 86      ',  6.928203, 1,    1,    1, 1,           1,           0, 1.05, 0.95, 1.05, 0.95
    87, 'BUS 87      ',  6.928203, 1,    1,    1, 1,           1,           0, 1.05, 0.95, 1.05, 0.95
    88, 'BUS 88      ',  6.928203, 1,    1,    1, 1,           1,           0, 1.05, 0.95, 1.05, 0.95
    89, 'BUS 89      ',  6.928203, 1,    1,    1, 1,           1,           0, 1.05, 0.95, 1.05, 0.95
    90, 'BUS 90      ',  6.928203, 1,    1,    1, 1,           1,           0, 1.05, 0.95, 1.05, 0.95
    91, 'BUS 91      ',  6.928203, 1,    1,    1, 1,           1,           0, 1.05, 0.95, 1.05, 0.95
    92, 'BUS 92      ',  6.928203, 1,    1,    1, 1,           1,           0, 1.05, 0.95, 1.05, 0.95
    93, 'BUS 93      ',  6.928203, 1,    1,    1, 1,           1,           0, 1.05, 0.95, 1.05, 0.95
    94, 'BUS 94      ',  6.928203, 1,    1,    1, 1,           1,           0, 1.05, 0.95, 1.05, 0.95
    95, 'BUS 95      ',  6.928203, 1,    1,    1, 1,           1,           0, 1.05, 0.95, 1.05, 0.95
    96, 'BUS 96      ',  6.928203, 1,    1,    1, 1,           1,           0, 1.05, 0.95, 1.05, 0.95
    97, 'BUS 97      ',  6.928203, 1,    1,    1, 1,           1,           0, 1.05, 0.95, 1.05, 0.95
    98, 'BUS 98      ',  6.928203, 1,    1,    1, 1,           1,           0, 1.05, 0.95, 1.05, 0.95
    99, 'BUS 99      ',  6.928203, 1,    1,    1, 1,           1,           0, 1.05, 0.95, 1.05, 0.95
   100, 'BUS 100     ',  6.928203, 1,    1,    1, 1,           1,           0, 1.05, 0.95, 1.05, 0.95
   101, 'BUS 101     ',  6.928203, 1,    1,    1, 1,           1,           0, 1.05, 0.95, 1.05, 0.95
   102, 'BUS 102     ',  6.928203, 1,    1,    1, 1,           1,           0, 1.05, 0.95, 1.05, 0.95
   103, 'BUS 103     ',  6.928203, 1,    1,    1, 1,           1,           0, 1.05, 0.95, 1.05, 0.95
   104, 'BUS 104     ',  6.928203, 1,    1,    1, 1,           1,           0, 1.05, 0.95, 1.05, 0.95
   105, 'BUS 105     ',  6.928203, 1,    1,    1, 1,           1,           0, 1.05, 0.95, 1.05, 0.95
   106, 'BUS 106     ',  6.928203, 1,    1,    1, 1,           1,           0, 1.05, 0.95, 1.05, 0.95
   107, 'BUS 107     ',  6.928203, 1,    1,    1, 1,           1,           0, 1.05, 0.95, 1.05, 0.95
   108, 'BUS 108     ',  6.928203, 1,    1,    1, 1,           1,           0, 1.05, 0.95, 1.05, 0.95
   109, 'BUS 109     ',  6.928203, 1,    1,    1, 1,           1,           0, 1.05, 0.95, 1.05, 0.95
   110, 'BUS 110     ',  6.928203, 1,    1,    1, 1,           1,           0, 1.05, 0.95, 1.05, 0.95
   111, 'BUS 111     ',  6.928203, 1,    1,    1, 1,           1,           0, 1.05, 0.95, 1.05, 0.95
   112, 'BUS 112     ',  6.928203, 1,    1,    1, 1,           1,           0, 1.05, 0.95, 1.05, 0.95
   113, 'BUS 113     ',  6.928203, 1,    1,    1, 1,           1,           0, 1.05, 0.95, 1.05, 0.95
   114, 'BUS 114     ',  6.928203, 1,    1,    1, 1,           1,           0, 1.05, 0.95, 1.05, 0.95
   115, 'BUS 115     ',  6.928203, 1,    1,    1, 1,           1,           0, 1.05, 0.95, 1.05, 0.95
   116, 'BUS 116     ',  6.928203, 1,    1,    1, 1,           1,           0, 1.05, 0.95, 1.05, 0.95
   117, 'BUS 117     ',  6.928203, 1,    1,    1, 1,           1,           0, 1.05, 0.95, 1.05, 0.95
   118, 'BUS 118     ',  6.928203, 1,    1,    1, 1,           1,           0, 1.05, 0.95, 1.05, 0.95
   119, 'BUS 119     ',  6.928203, 1,    1,    1, 1,           1,           0, 1.05, 0.95, 1.05, 0.95
   120, 'BUS 120     ',  6.928203, 1,    1,    1, 1,           1,           0, 1.05, 0.95, 1.05, 0.95
   121, 'BUS 121     ',  6.928203, 1,    1,    1, 1,           1,           0, 1.05, 0.95, 1.05, 0.95
   122, 'BUS 122     ',  6.928203, 1,    1,    1, 1,           1,           0, 1.05, 0.95, 1.05, 0.95
   123, 'BUS 123     ',  6.928203, 1,    1,    1, 1,           1,           0, 1.05, 0.95, 1.05, 0.95
   124, 'BUS 124     ',  6.928203, 1,    1,    1, 1,           1,           0, 1.05, 0.95, 1.05, 0.95
   125, 'BUS 125     ',  6.928203, 1,    1,    1, 1,           1,           0, 1.05, 0.95, 1.05, 0.95
   126, 'BUS 126     ',  6.928203, 1,    1,    1, 1,           1,           0, 1.05, 0.95, 1.05, 0.95
   127, 'BUS 127     ',  6.928203, 1,    1,    1, 1,           1,           0, 1.05, 0.95, 1.05, 0.95
   128, 'BUS 128     ',  6.928203, 1,    1,    1, 1,           1,           0, 1.05, 0.95, 1.05, 0.95
   129, 'BUS 129     ',  6.928203, 1,    1,    1, 1,           1,           0, 1.05, 0.95, 1.05, 0.95
   130, 'BUS 130     ',  6.928203, 1,    1,    1, 1,           1,           0, 1.05, 0.95, 1.05, 0.95
   131, 'BUS 131     ',  6.928203, 1,    1,    1, 1,           1,           0, 1.05, 0.95, 1.05, 0.95
   132, 'BUS 132     ',  6.928203, 1,    1,    1, 1,           1,           0, 1.05, 0.95, 1.05, 0.95
   133, 'BUS 133     ',  6.928203, 1,    1,    1, 1,           1,           0, 1.05, 0.95, 1.05, 0.95
   134, 'BUS 134     ',  6.928203, 1,    1,    1, 1,           1,           0, 1.05, 0.95, 1.05, 0.95
   135, 'BUS 135     ',  6.928203, 1,    1,    1, 1,           1,           0, 1.05, 0.95, 1.05, 0.95
   136, 'BUS 136     ',  6.928203, 1,    1,    1, 1,           1,           0, 1.05, 0.95, 1.05, 0.95
   137, 'BUS 137     ',  6.928203, 1,    1,    1, 1,           1,           0, 1.05, 0.95, 1.05, 0.95
   138, 'BUS 138     ',  6.928203, 1,    1,    1, 1,           1,           0, 1.05, 0.95, 1.05, 0.95
   139, 'BUS 139     ',  6.928203, 1,    1,    1, 1,           1,           0, 1.05, 0.95, 1.05, 0.95
   140, 'BUS 140     ',  6.928203, 1,    1,    1, 1,           1,           0, 1.05, 0.95, 1.05, 0.95
   141, 'BUS 141     ',  6.928203, 1,    1,    1, 1,           1,           0, 1.05, 0.95, 1.05, 0.95
   142, 'BUS 142     ',  6.928203, 1,    1,    1, 1,           1,           0, 1.05, 0.95, 1.05, 0.95
   143, 'BUS 143     ',  6.928203, 1,    1,    1, 1,           1,           0, 1.05, 0.95, 1.05, 0.95
   144, 'BUS 144     ',  6.928203, 1,    1,    1, 1,           1,           0, 1.05, 0.95, 1.05, 0.95
   145, 'BUS 145     ',  6.928203, 1,    1,    1, 1,           1,           0, 1.05, 0.95, 1.05, 0.95
   146, 'BUS 146     ',  6.928203, 1,    1,    1, 1,           1,           0, 1.05, 0.95, 1.05, 0.95
   147, 'BUS 147     ',  6.928203, 1,    1,    1, 1,           1,           0, 1.05, 0.95, 1.05, 0.95
   148, 'BUS 148     ',  6.928203, 1,    1,    1, 1,           1,           0, 1.05, 0.95, 1.05, 0.95
   149, 'BUS 149     ',  6.928203, 1,    1,    1, 1,           1,           0, 1.05, 0.95, 1.05, 0.95
   150, 'BUS 150     ',  6.928203, 1,    1,    1, 1,           1,           0, 1.05, 0.95, 1.05, 0.95
   151, 'BUS 151     ',  6.928203, 1,    1,    1, 1,           1,           0, 1.05, 0.95, 1.05, 0.95
   152, 'BUS 152     ',  6.928203, 1,    1,    1, 1,           1,           0, 1.05, 0.95, 1.05, 0.95
   153, 'BUS 153     ',  6.928203, 1,    1,    1, 1,           1,           0, 1.05, 0.95, 1.05, 0.95
   154, 'BUS 154     ',  6.928203, 1,    1,    1, 1,           1,           0, 1.05, 0.95, 1.05, 0.95
   155, 'BUS 155     ',  6.928203, 1,    1,    1, 1,           1,           0, 1.05, 0.95, 1.05, 0.95
   156, 'BUS 156     ',  6.928203, 1,    1,    1, 1,           1,           0, 1.05, 0.95, 1.05, 0.95
   157, 'BUS 157     ',  6.928203, 1,    1,    1, 1,           1,           0, 1.05, 0.95, 1.05, 0.95
   158, 'BUS 158     ',  6.928203, 1,    1,    1, 1,           1,           0, 1.05, 0.95, 1.05, 0.95
   159, 'BUS 159     ',  6.928203, 1,    1,    1, 1,           1,           0, 1.05, 0.95, 1.05, 0.95
   160, 'BUS 160     ',  6.928203, 1,    1,    1, 1,           1,           0, 1.05, 0.95, 1.05, 0.95
   161, 'BUS 161     ',  6.928203, 1,    1,    1, 1,           1,           0, 1.05, 0.95, 1.05, 0.95
   162, 'BUS 162     ',  6.928203, 1,    1,    1, 1,           1,           0, 1.05, 0.95, 1.05, 0.95
   163, 'BUS 163     ',  6.928203, 1,    1,    1, 1,           1,           0, 1.05, 0.95, 1.05, 0.95
   164, 'BUS 164     ',  6.928203, 1,    1,    1, 1,           1,           0, 1.05, 0.95, 1.05, 0.95
   165, 'BUS 165     ',  6.928203, 1,    1,    1, 1,           1,           0, 1.05, 0.95, 1.05, 0.95
   166, 'BUS 166     ',  6.928203, 1,    1,    1, 1,           1,           0, 1.05, 0.95, 1.05, 0.95
   167, 'BUS 167     ',  6.928203, 1,    1,    1, 1,           1,           0, 1.05, 0.95, 1.05, 0.95
   168, 'BUS 168     ',  6.928203, 1,    1,    1, 1,           1,           0, 1.05, 0.95, 1.05, 0.95
   169, 'BUS 169     ',  6.928203, 1,    1,    1, 1,           1,           0, 1.05, 0.95, 1.05, 0.95
   170, 'BUS 170     ',  6.928203, 1,    1,    1, 1,           1,           0, 1.05, 0.95, 1.05, 0.95
   171, 'BUS 171     ',  6.928203, 1,    1,    1, 1,           1,           0, 1.05, 0.95, 1.05, 0.95
   172, 'BUS 172     ',  6.928203, 1,    1,    1, 1,           1,           0, 1.05, 0.95, 1.05, 0.95
   173, 'BUS 173     ',  6.928203, 1,    1,    1, 1,           1,           0, 1.05, 0.95, 1.05, 0.95
   174, 'BUS 174     ',  6.928203, 1,    1,    1, 1,           1,           0, 1.05, 0.95, 1.05, 0.95
   175, 'BUS 175     ',  6.928203, 1,    1,    1, 1,           1,           0, 1.05, 0.95, 1.05, 0.95
   176, 'BUS 176     ',  6.928203, 1,    1,    1, 1,           1,           0, 1.05, 0.95, 1.05, 0.95
   177, 'BUS 177     ',  6.928203, 1,    1,    1, 1,           1,           0, 1.05, 0.95, 1.05, 0.95
   178, 'BUS 178     ',  6.928203, 1,    1,    1, 1,           1,           0, 1.05, 0.95, 1.05, 0.95
   179, 'BUS 179     ',  6.928203, 1,    1,    1, 1,           1,           0, 1.05, 0.95, 1.05, 0.95
   180, 'BUS 180     ',  6.928203, 1,    1,    1, 1,           1,           0, 1.05, 0.95, 1.05, 0.95
   181, 'BUS 181     ',  6.928203, 1,    1,    1, 1,           1,           0, 1.05, 0.95, 1.05, 0.95
   182, 'BUS 182     ',  6.928203, 1,    1,    1, 1,           1,           0, 1.05, 0.95, 1.05, 0.95
   183, 'BUS 183     ',  6.928203, 1,    1,    1, 1,           1,           0, 1.05, 0.95, 1.05, 0.95
   184, 'BUS 184     ',  6.928203, 1,    1,    1, 1,           1,           0, 1.05, 0.95, 1.05, 0.95
   185, 'BUS 185     ',  6.928203, 1,    1,    1, 1,           1,           0, 1.05, 0.95, 1.05, 0.95
   186, 'BUS 186     ',  6.928203, 1,    1,    1, 1,           1,           0, 1.05, 0.95, 1.05, 0.95
   187, 'BUS 187     ',  6.928203, 1,    1,    1, 1,           1,           0, 1.05, 0.95, 1.05, 0.95
   188, 'BUS 188     ',  6.928203, 1,    1,    1, 1,           1,           0, 1.05, 0.95, 1.05, 0.95
   189, 'BUS 189     ',  6.928203, 1,    1,    1, 1,           1,           0, 1.05, 0.95, 1.05, 0.95
   190, 'BUS 190     ',  6.928203, 1,    1,    1, 1,           1,           0, 1.05, 0.95, 1.05, 0.95
   191, 'BUS 191     ',  6.928203, 1,    1,    1, 1,           1,           0, 1.05, 0.95, 1.05, 0.95
   192, 'BUS 192     ',  6.928203, 1,    1,    1, 1,           1,           0, 1.05, 0.95, 1.05, 0.95
   193, 'BUS 193     ',  6.928203, 1,    1,    1, 1,           1,           0, 1.05, 0.95, 1.05, 0.95
   194, 'BUS 194     ',  6.928203, 1,    1,    1, 1,           1,           0, 1.05, 0.95, 1.05, 0.95
   195, 'BUS 195     ',  6.928203, 1,    1,    1, 1,           1,           0, 1.05, 0.95, 1.05, 0.95
   196, 'BUS 196     ',  6.928203, 1,    1,    1, 1,           1,           0, 1.05, 0.95, 1.05, 0.95
   197, 'BUS 197     ',  6.928203, 1,    1,    1, 1,           1,           0, 1.05, 0.95, 1.05, 0.95
   198, 'BUS 198     ',  6.928203, 1,    1,    1, 1,           1,           0, 1.05, 0.95, 1.05, 0.95
   199, 'BUS 199     ',  6.928203, 1,    1,    1, 1,           1,           0, 1.05, 0.95, 1.05, 0.95
   200, 'BUS 200     ',  6.928203, 1,    1,    1, 1,           1,           0, 1.05, 0.95, 1.05, 0.95
...
0 / END OF BUS DATA, BEGIN LOAD DATA
     6,  1, 1,    1,    1, -0.01566667, -0.000156667, 0, 0, 0, 0, 1, 1, 0
     7,  1, 1,    1,    1, -0.2246667, -0.002246667, 0, 0, 0, 0, 1, 1, 0
     8,  1, 1,    1,    1, -0.2053333, -0.002053333, 0, 0, 0, 0, 1, 1, 0
     9,  1, 1,    1,    1, 0.004427333,  4.43e-05, 0, 0, 0, 0, 1, 1, 0
    10,  1, 1,    1,    1,  3.33e-05,  3.33e-07, 0, 0, 0, 0, 1, 1, 0
    11,  1, 1,    1,    1, -0.001271, -1.27e-05, 0, 0, 0, 0, 1, 1, 0
    12,  1, 1,    1,    1, 0.000933333,  9.33e-06, 0, 0, 0, 0, 1, 1, 0
    13,  1, 1,    1,    1, 0.002866667,  2.87e-05, 0, 0, 0, 0, 1, 1, 0
    14,  1, 1,    1,    1, 0.002033333,  2.03e-05, 0, 0, 0, 0, 1, 1, 0
    15,  1, 1,    1,    1, 0.000966667,  9.67e-06, 0, 0, 0, 0, 1, 1, 0
    16,  1, 1,    1,    1, 0.000633333,  6.33e-06, 0, 0, 0, 0, 1, 1, 0
    17,  1, 1,    1,    1, 0.002332333,  2.33e-05, 0, 0, 0, 0, 1, 1, 0
    18,  1, 1,    1,    1, -0.000740333,  -7.4e-06, 0, 0, 0, 0, 1, 1, 0
    19,  1, 1,    1,    1, 0.000566667,  5.67e-06, 0, 0, 0, 0, 1, 1, 0
    20,  1, 1,    1,    1, 0.002306667,  2.31e-05, 0, 0, 0, 0, 1, 1, 0
    21,  1, 1,    1,    1,    0.0006,     6e-06, 0, 0, 0, 0, 1, 1, 0
    22,  1, 1,    1,    1, 0.007484333,  7.48e-05, 0, 0, 0, 0, 1, 1, 0
    23,  1, 1,    1,    1, 0.03416533, 0.000341653, 0, 0, 0, 0, 1, 1, 0
    24,  1, 1,    1,    1, 0.01553533, 0.000155353, 0, 0, 0, 0, 1, 1, 0
    25,  1, 1,    1,    1, 0.01754867, 0.000175487, 0, 0, 0, 0, 1, 1, 0
    26,  1, 1,    1,    1, 0.007739333,  7.74e-05, 0, 0, 0, 0, 1, 1, 0
    27,  1, 1,    1,    1, 0.001166667,  1.17e-05, 0, 0, 0, 0, 1, 1, 0
    28,  1, 1,    1,    1,  0.002838,  2.84e-05, 0, 0, 0, 0, 1, 1, 0
    29,  1, 1,    1,    1, 0.008333333,  8.33e-05, 0, 0, 0, 0, 1, 1, 0
    30,  1, 1,    1,    1, 0.09033333, 0.000903333, 0, 0, 0, 0, 1, 1, 0
    32,  1, 1,    1,    1, 0.01912433, 0.000191243, 0, 0, 0, 0, 1, 1, 0
    33,  1, 1,    1,    1, -0.018339, -0.00018339, 0, 0, 0, 0, 1, 1, 0
    34,  1, 1,    1,    1, 0.1071007, 0.001071007, 0, 0, 0, 0, 1, 1, 0
    35,  1, 1,    1,    1, 0.08175967, 0.000817597, 0, 0, 0, 0, 1, 1, 0
    36,  1, 1,    1,    1, 0.07453233, 0.000745323, 0, 0, 0, 0, 1, 1, 0
    38,  1, 1,    1,    1,  0.019531, 0.00019531, 0, 0, 0, 0, 1, 1, 0
    39,  1, 1,    1,    1,  0.009567,  9.57e-05, 0, 0, 0, 0, 1, 1, 0
    40,  1, 1,    1,    1, 0.01666967, 0.000166697, 0, 0, 0, 0, 1, 1, 0
    41,  1, 1,    1,    1, 0.000260333,   2.6e-06, 0, 0, 0, 0, 1, 1, 0
    42,  1, 1,    1,    1, -0.09366667, -0.000936667, 0, 0, 0, 0, 1, 1, 0
    43,  1, 1,    1,    1,    -0.121,  -0.00121, 0, 0, 0, 0, 1, 1, 0
    44,  1, 1,    1,    1, 0.02663567, 0.000266357, 0, 0, 0, 0, 1, 1, 0
    45,  1, 1,    1,    1,  0.001526,  1.53e-05, 0, 0, 0, 0, 1, 1, 0
    46,  1, 1,    1,    1,     0.015,   0.00015, 0, 0, 0, 0, 1, 1, 0
    47,  1, 1,    1,    1, -0.1956667, -0.001956667, 0, 0, 0, 0, 1, 1, 0
    48,  1, 1,    1,    1,  0.002748,  2.75e-05, 0, 0, 0, 0, 1, 1, 0
    49,  1, 1,    1,    1,   -0.0121, -0.000121, 0, 0, 0, 0, 1, 1, 0
    50,  1, 1,    1,    1,    0.0044,   4.4e-05, 0, 0, 0, 0, 1, 1, 0
    51,  1, 1,    1,    1, 0.001533333,  1.53e-05, 0, 0, 0, 0, 1, 1, 0
    52,  1, 1,    1,    1, -0.1813333, -0.001813333, 0, 0, 0, 0, 1, 1, 0
    53,  1, 1,    1,    1, 0.006189333,  6.19e-05, 0, 0, 0, 0, 1, 1, 0
    54,  1, 1,    1,    1,    0.0021,   2.1e-05, 0, 0, 0, 0, 1, 1, 0
    55,  1, 1,    1,    1,    0.0006,     6e-06, 0, 0, 0, 0, 1, 1, 0
    56,  1, 1,    1,    1,  0.008821,  8.82e-05, 0, 0, 0, 0, 1, 1, 0
    57,  1, 1,    1,    1, 0.02351933, 0.000235193, 0, 0, 0, 0, 1, 1, 0
    58,  1, 1,    1,    1, 0.000946667,  9.47e-06, 0, 0, 0, 0, 1, 1, 0
    59,  1, 1,    1,    1, -0.010598, -0.00010598, 0, 0, 0, 0, 1, 1, 0
    60,  1, 1,    1,    1,  0.031601, 0.00031601, 0, 0, 0, 0, 1, 1, 0
    61,  1, 1,    1,    1, 0.05617333, 0.000561733, 0, 0, 0, 0, 1, 1, 0
    62,  1, 1,    1,    1, 0.01621167, 0.000162117, 0, 0, 0, 0, 1, 1, 0
    63,  1, 1,    1,    1,  0.022671, 0.00022671, 0, 0, 0, 0, 1, 1, 0
    64,  1, 1,    1,    1, 0.006514333,  6.51e-05, 0, 0, 0, 0, 1, 1, 0
    65,  1, 1,    1,    1, 0.006666667,  6.67e-05, 0, 0, 0, 0, 1, 1, 0
    66,  1, 1,    1,    1, 0.03654233, 0.000365423, 0, 0, 0, 0, 1, 1, 0
    67,  1, 1,    1,    1, 0.03635033, 0.000363503, 0, 0, 0, 0, 1, 1, 0
    68,  1, 1,    1,    1, 0.04447933, 0.000444793, 0, 0, 0, 0, 1, 1, 0
    69,  1, 1,    1,    1, 0.03771767, 0.000377177, 0, 0, 0, 0, 1, 1, 0
    70,  1, 1,    1,    1, 0.01533133, 0.000153313, 0, 0, 0, 0, 1, 1, 0
    71,  1, 1,    1,    1, -0.01737733, -0.000173773, 0, 0, 0, 0, 1, 1, 0
    72,  1, 1,    1,    1, 0.5246667, 0.005246667, 0, 0, 0, 0, 1, 1, 0
    73,  1, 1,    1,    1, 0.03866667, 0.000386667, 0, 0, 0, 0, 1, 1, 0
    74,  1, 1,    1,    1,     0.009,     9e-05, 0, 0, 0, 0, 1, 1, 0
    75,  1, 1,    1,    1, 0.02879333, 0.000287933, 0, 0, 0, 0, 1, 1, 0
    76,  1, 1,    1,    1, 0.005333333,  5.33e-05, 0, 0, 0, 0, 1, 1, 0
    77,  1, 1,    1,    1,  0.001703,   1.7e-05, 0, 0, 0, 0, 1, 1, 0
    78,  1, 1,    1,    1, 0.007500333,   7.5e-05, 0, 0, 0, 0, 1, 1, 0
    79,  1, 1,    1,    1, 0.002896333,   2.9e-05, 0, 0, 0, 0, 1, 1, 0
    80,  1, 1,    1,    1,    0.0018,   1.8e-05, 0, 0, 0, 0, 1, 1, 0
    82,  1, 1,    1,    1,   0.00476,  4.76e-05, 0, 0, 0, 0, 1, 1, 0
    83,  1, 1,    1,    1, -0.004191333, -4.19e-05, 0, 0, 0, 0, 1, 1, 0
    84,  1, 1,    1,    1,   0.00571,  5.71e-05, 0, 0, 0, 0, 1, 1, 0
    85,  1, 1,    1,    1, 0.003115667,  3.12e-05, 0, 0, 0, 0, 1, 1, 0
    86,  1, 1,    1,    1, -0.001128, -1.13e-05, 0, 0, 0, 0, 1, 1, 0
    87,  1, 1,    1,    1, 0.001928333,  1.93e-05, 0, 0, 0, 0, 1, 1, 0
    88,  1, 1,    1,    1, 0.000581333,  5.81e-06, 0, 0, 0, 0, 1, 1, 0
    89,  1, 1,    1,    1,  0.003095,   3.1e-05, 0, 0, 0, 0, 1, 1, 0
    90,  1, 1,    1,    1, 0.004434333,  4.43e-05, 0, 0, 0, 0, 1, 1, 0
    91,  1, 1,    1,    1, 0.004522333,  4.52e-05, 0, 0, 0, 0, 1, 1, 0
    92,  1, 1,    1,    1, 0.001226333,  1.23e-05, 0, 0, 0, 0, 1, 1, 0
    93,  1, 1,    1,    1, -0.007985667, -7.99e-05, 0, 0, 0, 0, 1, 1, 0
    94,  1, 1,    1,    1,  0.001045,  1.05e-05, 0, 0, 0, 0, 1, 1, 0
    95,  1, 1,    1,    1, 0.002198667,   2.2e-05, 0, 0, 0, 0, 1, 1, 0
    96,  1, 1,    1,    1, 0.001960667,  1.96e-05, 0, 0, 0, 0, 1, 1, 0
    97,  1, 1,    1,    1, -0.004037333, -4.04e-05, 0, 0, 0, 0, 1, 1, 0
    98,  1, 1,    1,    1, 0.000889667,   8.9e-06, 0, 0, 0, 0, 1, 1, 0
    99,  1, 1,    1,    1, 0.002322333,  2.32e-05, 0, 0, 0, 0, 1, 1, 0
   100,  1, 1,    1,    1, 0.001514667,  1.51e-05, 0, 0, 0, 0, 1, 1, 0
   101,  1, 1,    1,    1, -0.001014667, -1.01e-05, 0, 0, 0, 0, 1, 1, 0
   102,  1, 1,    1,    1, -0.000569333, -5.69e-06, 0, 0, 0, 0, 1, 1, 0
   103,  1, 1,    1,    1, 0.001540667,  1.54e-05, 0, 0, 0, 0, 1, 1, 0
   104,  1, 1,    1,    1, 0.001713667,  1.71e-05, 0, 0, 0, 0, 1, 1, 0
   105,  1, 1,    1,    1, 0.01034133, 0.000103413, 0, 0, 0, 0, 1, 1, 0
   106,  1, 1,    1,    1,  0.001034,  1.03e-05, 0, 0, 0, 0, 1, 1, 0
   107,  1, 1,    1,    1,  0.010526, 0.00010526, 0, 0, 0, 0, 1, 1, 0
   108,  1, 1,    1,    1,  0.016171, 0.00016171, 0, 0, 0, 0, 1, 1, 0
   109,  1, 1,    1,    1,    0.0017,   1.7e-05, 0, 0, 0, 0, 1, 1, 0
   110,  1, 1,    1,    1, -0.006899667,  -6.9e-05, 0, 0, 0, 0, 1, 1, 0
   111,  1, 1,    1,    1, 0.002333333,  2.33e-05, 0, 0, 0, 0, 1, 1, 0
   112,  1, 1,    1,    1,     0.001,     1e-05, 0, 0, 0, 0, 1, 1, 0
   113,  1, 1,    1,    1, 0.002286667,  2.29e-05, 0, 0, 0, 0, 1, 1, 0
   114,  1, 1,    1,    1,    -0.148,  -0.00148, 0, 0, 0, 0, 1, 1, 0
   115,  1, 1,    1,    1, 0.001366667,  1.37e-05, 0, 0, 0, 0, 1, 1, 0
   116,  1, 1,    1,    1, 0.000533333,  5.33e-06, 0, 0, 0, 0, 1, 1, 0
   117,  1, 1,    1,    1, 0.000866667,  8.67e-06, 0, 0, 0, 0, 1, 1, 0
   118,  1, 1,    1,    1,    0.0019,   1.9e-05, 0, 0, 0, 0, 1, 1, 0
   119,  1, 1,    1,    1,  0.002525,  2.53e-05, 0, 0, 0, 0, 1, 1, 0
   120,  1, 1,    1,    1, -0.002066667, -2.07e-05, 0, 0, 0, 0, 1, 1, 0
   121,  1, 1,    1,    1,    0.0037,   3.7e-05, 0, 0, 0, 0, 1, 1, 0
   122,  1, 1,    1,    1, -0.002489333, -2.49e-05, 0, 0, 0, 0, 1, 1, 0
   123,  1, 1,    1,    1,    -0.163,  -0.00163, 0, 0, 0, 0, 1, 1, 0
   124,  1, 1,    1,    1, -0.000433333, -4.33e-06, 0, 0, 0, 0, 1, 1, 0
   125,  1, 1,    1,    1, -0.009256667, -9.26e-05, 0, 0, 0, 0, 1, 1, 0
   126,  1, 1,    1,    1, -0.001566667, -1.57e-05, 0, 0, 0, 0, 1, 1, 0
   127,  1, 1,    1,    1, -0.001365, -1.37e-05, 0, 0, 0, 0, 1, 1, 0
   128,  1, 1,    1,    1, 0.005666667,  5.67e-05, 0, 0, 0, 0, 1, 1, 0
   129,  1, 1,    1,    1, 0.001833333,  1.83e-05, 0, 0, 0, 0, 1, 1, 0
   130,  1, 1,    1,    1, 0.000166667,  1.67e-06, 0, 0, 0, 0, 1, 1, 0
   131,  1, 1,    1,    1, 0.000252667,  2.53e-06, 0, 0, 0, 0, 1, 1, 0
   132,  1, 1,    1,    1, 0.003044667,  3.04e-05, 0, 0, 0, 0, 1, 1, 0
   133,  1, 1,    1,    1, 0.004182667,  4.18e-05, 0, 0, 0, 0, 1, 1, 0
   134,  1, 1,    1,    1, 0.001166667,  1.17e-05, 0, 0, 0, 0, 1, 1, 0
   135,  1, 1,    1,    1, 0.006259667,  6.26e-05, 0, 0, 0, 0, 1, 1, 0
   136,  1, 1,    1,    1,    0.0051,   5.1e-05, 0, 0, 0, 0, 1, 1, 0
   137,  1, 1,    1,    1, 0.001066667,  1.07e-05, 0, 0, 0, 0, 1, 1, 0
   138,  1, 1,    1,    1,  0.000204,  2.04e-06, 0, 0, 0, 0, 1, 1, 0
   139,  1, 1,    1,    1, -0.004076, -4.08e-05, 0, 0, 0, 0, 1, 1, 0
   140,  1, 1,    1,    1, -0.001299667,  -1.3e-05, 0, 0, 0, 0, 1, 1, 0
   141,  1, 1,    1,    1, -0.003872, -3.87e-05, 0, 0, 0, 0, 1, 1, 0
   142,  1, 1,    1,    1, 0.004060333,  4.06e-05, 0, 0, 0, 0, 1, 1, 0
   143,  1, 1,    1,    1, -0.008910333, -8.91e-05, 0, 0, 0, 0, 1, 1, 0
   144,  1, 1,    1,    1, -0.000287, -2.87e-06, 0, 0, 0, 0, 1, 1, 0
   145,  1, 1,    1,    1, 0.006719333,  6.72e-05, 0, 0, 0, 0, 1, 1, 0
   146,  1, 1,    1,    1, -0.004702667,  -4.7e-05, 0, 0, 0, 0, 1, 1, 0
   147,  1, 1,    1,    1, -0.002158333, -2.16e-05, 0, 0, 0, 0, 1, 1, 0
   148,  1, 1,    1,    1, 0.007329333,  7.33e-05, 0, 0, 0, 0, 1, 1, 0
   149,  1, 1,    1,    1, -0.007299333,  -7.3e-05, 0, 0, 0, 0, 1, 1, 0
   150,  1, 1,    1,    1, -0.005500333,  -5.5e-05, 0, 0, 0, 0, 1, 1, 0
   151,  1, 1,    1,    1,  0.004257,  4.26e-05, 0, 0, 0, 0, 1, 1, 0
   152,  1, 1,    1,    1, 0.008662333,  8.66e-05, 0, 0, 0, 0, 1, 1, 0
   154,  1, 1,    1,    1, 0.003066667,  3.07e-05, 0, 0, 0, 0, 1, 1, 0
   157,  1, 1,    1,    1,     0.002,     2e-05, 0, 0, 0, 0, 1, 1, 0
   159,  1, 1,    1,    1, -0.005287, -5.29e-05, 0, 0, 0, 0, 1, 1, 0
   161,  1, 1,    1,    1, 0.000333333,  3.33e-06, 0, 0, 0, 0, 1, 1, 0
   162,  1, 1,    1,    1, 0.000366667,  3.67e-06, 0, 0, 0, 0, 1, 1, 0
   163,  1, 1,    1,    1, -0.005319333, -5.32e-05, 0, 0, 0, 0, 1, 1, 0
   164,  1, 1,    1,    1, 0.000533333,  5.33e-06, 0, 0, 0, 0, 1, 1, 0
   165,  1, 1,    1,    1, 0.001733333,  1.73e-05, 0, 0, 0, 0, 1, 1, 0
   166,  1, 1,    1,    1, 0.000643333,  6.43e-06, 0, 0, 0, 0, 1, 1, 0
   167,  1, 1,    1,    1, 0.05167467, 0.000516747, 0, 0, 0, 0, 1, 1, 0
   169,  1, 1,    1,    1, -0.1363333, -0.001363333, 0, 0, 0, 0, 1, 1, 0
   170,  1, 1,    1,    1, 0.05856333, 0.000585633, 0, 0, 0, 0, 1, 1, 0
   171,  1, 1,    1,    1, 0.02366667, 0.000236667, 0, 0, 0, 0, 1, 1, 0
   173,  1, 1,    1,    1, -0.3676667, -0.003676667, 0, 0, 0, 0, 1, 1, 0
   174,  1, 1,    1,    1, -0.2876667, -0.002876667, 0, 0, 0, 0, 1, 1, 0
   175,  1, 1,    1,    1, -0.3776667, -0.003776667, 0, 0, 0, 0, 1, 1, 0
   176,  1, 1,    1,    1, -0.3506667, -0.003506667, 0, 0, 0, 0, 1, 1, 0
   177,  1, 1,    1,    1, -0.3546667, -0.003546667, 0, 0, 0, 0, 1, 1, 0
   178,  1, 1,    1,    1, 0.000833333,  8.33e-06, 0, 0, 0, 0, 1, 1, 0
   180,  1, 1,    1,    1,  0.027366, 0.00027366, 0, 0, 0, 0, 1, 1, 0
   181,  1, 1,    1,    1, 0.006906667,  6.91e-05, 0, 0, 0, 0, 1, 1, 0
   182,  1, 1,    1,    1, 0.002566667,  2.57e-05, 0, 0, 0, 0, 1, 1, 0
   183,  1, 1,    1,    1, 0.007034333,  7.03e-05, 0, 0, 0, 0, 1, 1, 0
   184,  1, 1,    1,    1, 0.000333333,  3.33e-06, 0, 0, 0, 0, 1, 1, 0
   185,  1, 1,    1,    1, 0.001987333,  1.99e-05, 0, 0, 0, 0, 1, 1, 0
   186,  1, 1,    1,    1, 0.000385667,  3.86e-06, 0, 0, 0, 0, 1, 1, 0
   187,  1, 1,    1,    1, -0.008466, -8.47e-05, 0, 0, 0, 0, 1, 1, 0
   188,  1, 1,    1,    1, 0.001133667,  1.13e-05, 0, 0, 0, 0, 1, 1, 0
   189,  1, 1,    1,    1,    0.0014,   1.4e-05, 0, 0, 0, 0, 1, 1, 0
   190,  1, 1,    1,    1,    0.0012,   1.2e-05, 0, 0, 0, 0, 1, 1, 0
   191,  1, 1,    1,    1, 0.000466667,  4.67e-06, 0, 0, 0, 0, 1, 1, 0
   192,  1, 1,    1,    1,    0.0025,   2.5e-05, 0, 0, 0, 0, 1, 1, 0
   193,  1, 1,    1,    1, 0.002533333,  2.53e-05, 0, 0, 0, 0, 1, 1, 0
   194,  1, 1,    1,    1, 0.000580667,  5.81e-06, 0, 0, 0, 0, 1, 1, 0
   195,  1, 1,    1,    1, -0.09966667, -0.000996667, 0, 0, 0, 0, 1, 1, 0
   196,  1, 1,    1,    1, 0.006733333,  6.73e-05, 0, 0, 0, 0, 1, 1, 0
   197,  1, 1,    1,    1,   0.00021,   2.1e-06, 0, 0, 0, 0, 1, 1, 0
   198,  1, 1,    1,    1,    0.0024,   2.4e-05, 0, 0, 0, 0, 1, 1, 0
   199,  1, 1,    1,    1, 0.001133333,  1.13e-05, 0, 0, 0, 0, 1, 1, 0
   200,  1, 1,    1,    1,  0.000815,  8.15e-06, 0, 0, 0, 0, 1, 1, 0
   201,  1, 1,    1,    1,   0.00441,  4.41e-05, 0, 0, 0, 0, 1, 1, 0
   203,  1, 1,    1,    1, -0.008468, -8.47e-05, 0, 0, 0, 0, 1, 1, 0
   205,  1, 1,    1,    1, -0.005733333, -5.73e-05, 0, 0, 0, 0, 1, 1, 0
   208,  1, 1,    1,    1, 0.000141667,  1.42e-06, 0, 0, 0, 0, 1, 1, 0
   209,  1, 1,    1,    1,  6.67e-05,  6.67e-07, 0, 0, 0, 0, 1, 1, 0
   210,  1, 1,    1,    1,    0.0017,   1.7e-05, 0, 0, 0, 0, 1, 1, 0
   211,  1, 1,    1,    1, 0.007666667,  7.67e-05, 0, 0, 0, 0, 1, 1, 0
   212,  1, 1,    1,    1, 0.002333333,  2.33e-05, 0, 0, 0, 0, 1, 1, 0
   213,  1, 1,    1,    1, 0.03801233, 0.000380123, 0, 0, 0, 0, 1, 1, 0
   214,  1, 1,    1,    1, 0.03846233, 0.000384623, 0, 0, 0, 0, 1, 1, 0
   215,  1, 1,    1,    1, 0.04783233, 0.000478323, 0, 0, 0, 0, 1, 1, 0
   216,  1, 1,    1,    1, 0.02478667, 0.000247867, 0, 0, 0, 0, 1, 1, 0
   217,  1, 1,    1,    1, 0.002666667,  2.67e-05, 0, 0, 0, 0, 1, 1, 0
   218,  1, 1,    1,    1, 0.03501233, 0.000350123, 0, 0, 0, 0, 1, 1, 0
   219,  1, 1,    1,    1,    0.0024,   2.4e-05, 0, 0, 0, 0, 1, 1, 0
   220,  1, 1,    1,    1, 0.02645367, 0.000264537, 0, 0, 0, 0, 1, 1, 0
...
0 / END OF LOAD DATA, BEGIN FIXED SHUNT DATA
0 / END OF FIXED SHUNT DATA, BEGIN GENERATOR DATA
     1,  1,         0,         0,  16.66667, -16.66667,        1, 0, 16.6667, 0, 1, 0, 0, 1, 1, 100,  16.66667, -16.66667, 1, 1, 0, 1, 0, 1, 0, 1, 0, 1
0 / END OF GENERATOR DATA, BEGIN BRANCH DATA
     4,      1, 1, 0.000961394, 0.001996898,        0, 50.6625,       0,       0, 0, 0, 0, 0, 1, 1, 0, 1, 1, 0, 1, 0, 1, 0, 1
     5,      2, 1, 0.2473643, 0.1392511,        0,   5.404,       0,       0, 0, 0, 0, 0, 1, 1, 0, 1, 1, 0, 1, 0, 1, 0, 1
     5,      6, 1, 0.02786372, 0.004373436,        0, 1.66277,       0,       0, 0, 0, 0, 0, 1, 1, 0, 1, 1, 0, 1, 0, 1, 0, 1
     6,      7, 1, 0.398978, 0.06648439,        0, 1.00459,       0,       0, 0, 0, 0, 0, 1, 1, 0, 1, 1, 0, 1, 0, 1, 0, 1
     7,      8, 1, 0.06788368, 0.01297543,        0, 1.07387,       0,       0, 0, 0, 0, 0, 1, 1, 0, 1, 1, 0, 1, 0, 1, 0, 1
     5,      9, 1, 0.2087667, 0.06353642,        0, 1.42028,       0,       0, 0, 0, 0, 0, 1, 1, 0, 1, 1, 0, 1, 0, 1, 0, 1
     9,     10, 1, 0.06611111, 0.02012037,        0, 1.42028,       0,       0, 0, 0, 0, 0, 1, 1, 0, 1, 1, 0, 1, 0, 1, 0, 1
    11,     10, 1,    0.095, 0.02922685,        0, 1.42028,       0,       0, 0, 0, 0, 0, 1, 1, 0, 1, 1, 0, 1, 0, 1, 0, 1
    11,     12, 1, 0.09071111, 0.02824434,        0, 1.42028,       0,       0, 0, 0, 0, 0, 1, 1, 0, 1, 1, 0, 1, 0, 1, 0, 1
    12,     13, 1, 0.06757778, 0.02056674,        0, 1.42028,       0,       0, 0, 0, 0, 0, 1, 1, 0, 1, 1, 0, 1, 0, 1, 0, 1
    13,     14, 1, 0.1562883, 0.02987327,        0, 1.07387,       0,       0, 0, 0, 0, 0, 1, 1, 0, 1, 1, 0, 1, 0, 1, 0, 1
    14,     15, 1, 0.07513333, 0.02286621,        0, 1.42028,       0,       0, 0, 0, 0, 0, 1, 1, 0, 1, 1, 0, 1, 0, 1, 0, 1
    15,     16, 1, 0.2191556, 0.06669819,        0, 1.42028,       0,       0, 0, 0, 0, 0, 1, 1, 0, 1, 1, 0, 1, 0, 1, 0, 1
    16,     17, 1,   0.0978, 0.02976463,        0, 1.42028,       0,       0, 0, 0, 0, 0, 1, 1, 0, 1, 1, 0, 1, 0, 1, 0, 1
    17,     18, 1, 0.2354167, 0.02342014,        0, 0.69282,       0,       0, 0, 0, 0, 0, 1, 1, 0, 1, 1, 0, 1, 0, 1, 0, 1
    12,     19, 1, 0.2949045, 0.05274112,        0, 1.00459,       0,       0, 0, 0, 0, 0, 1, 1, 0, 1, 1, 0, 1, 0, 1, 0, 1
    11,     20, 1, 0.1398222, 0.0431609,        0, 1.42028,       0,       0, 0, 0, 0, 0, 1, 1, 0, 1, 1, 0, 1, 0, 1, 0, 1
    20,     21, 1, 0.1375924, 0.02629971,        0, 1.07387,       0,       0, 0, 0, 0, 0, 1, 1, 0, 1, 1, 0, 1, 0, 1, 0, 1
     5,     22, 1, 0.2399185, 0.04168479,        0, 0.969948,       0,       0, 0, 0, 0, 0, 1, 1, 0, 1, 1, 0, 1, 0, 1, 0, 1
     5,     23, 1, 0.04322083, 0.02401028,        0, 2.07846,       0,       0, 0, 0, 0, 0, 1, 1, 0, 1, 1, 0, 1, 0, 1, 0, 1
    24,     23, 1, 0.09016288, 0.01458255,        0, 0.969948,       0,       0, 0, 0, 0, 0, 1, 1, 0, 1, 1, 0, 1, 0, 1, 0, 1
    24,     25, 1, 0.04400441, 0.008386089,        0, 0.969948,       0,       0, 0, 0, 0, 0, 1, 1, 0, 1, 1, 0, 1, 0, 1, 0, 1
    25,     26, 1, 0.07483549, 0.01255361,        0, 0.969948,       0,       0, 0, 0, 0, 0, 1, 1, 0, 1, 1, 0, 1, 0, 1, 0, 1
    26,     27, 1, 0.1695415, 0.02658016,        0, 0.831384,       0,       0, 0, 0, 0, 0, 1, 1, 0, 1, 1, 0, 1, 0, 1, 0, 1
     2,      3, 1, 0.03237149, 0.01719454,        0,  7.3439,       0,       0, 0, 0, 0, 0, 0, 1, 0, 1, 1, 0, 1, 0, 1, 0, 1
    28,      2, 1, 0.01581757, 0.008259662,        0, 1.80133,       0,       0, 0, 0, 0, 0, 1, 1, 0, 1, 1, 0, 1, 0, 1, 0, 1
    29,     28, 1, 0.04492691, 0.02256384,        0, 1.80133,       0,       0, 0, 0, 0, 0, 1, 1, 0, 1, 1, 0, 1, 0, 1, 0, 1
    29,     30, 1, 0.04952208, 0.02626491,        0, 1.80133,       0,       0, 0, 0, 0, 0, 1, 1, 0, 1, 1, 0, 1, 0, 1, 0, 1
    31,     30, 1, 0.0446474, 0.02696087,        0, 2.07846,       0,       0, 0, 0, 0, 0, 1, 1, 0, 1, 1, 0, 1, 0, 1, 0, 1
    31,     32, 1, 0.00984809, 0.006746897,        0, 2.35559,       0,       0, 0, 0, 0, 0, 1, 1, 0, 1, 1, 0, 1, 0, 1, 0, 1
    32,     33, 1, 0.01403823, 0.008455466,        0, 2.07846,       0,       0, 0, 0, 0, 0, 1, 1, 0, 1, 1, 0, 1, 0, 1, 0, 1
    34,     33, 1, 0.04824875, 0.02595446,        0, 1.80133,       0,       0, 0, 0, 0, 0, 1, 1, 0, 1, 1, 0, 1, 0, 1, 0, 1
    34,     35, 1, 0.03379677, 0.0169538,        0, 1.80133,       0,       0, 0, 0, 0, 0, 1, 1, 0, 1, 1, 0, 1, 0, 1, 0, 1
    36,      2, 1, 0.09062837, 0.04766952,        0, 1.80133,       0,       0, 0, 0, 0, 0, 1, 1, 0, 1, 1, 0, 1, 0, 1, 0, 1
    36,     34, 1, 0.01401365, 0.009037206,        0, 1.80133,       0,       0, 0, 0, 0, 0, 0, 1, 0, 1, 1, 0, 1, 0, 1, 0, 1
    36,     37, 1, 0.1702421, 0.08590554,        0, 1.80133,       0,       0, 0, 0, 0, 0, 1, 1, 0, 1, 1, 0, 1, 0, 1, 0, 1
    38,      2, 1, 0.02525583, 0.01401979,        0, 2.07846,       0,       0, 0, 0, 0, 0, 1, 1, 0, 1, 1, 0, 1, 0, 1, 0, 1
    38,     39, 1, 0.02105681, 0.01062513,        0, 1.80133,       0,       0, 0, 0, 0, 0, 1, 1, 0, 1, 1, 0, 1, 0, 1, 0, 1
    40,     39, 1, 0.02060677, 0.01039834,        0, 1.80133,       0,       0, 0, 0, 0, 0, 1, 1, 0, 1, 1, 0, 1, 0, 1, 0, 1
     6,     41, 1, 0.1423777, 0.02421241,        0, 1.00459,       0,       0, 0, 0, 0, 0, 1, 1, 0, 1, 1, 0, 1, 0, 1, 0, 1
    42,     41, 1, 0.1490548, 0.02502617,        0, 1.00459,       0,       0, 0, 0, 0, 0, 1, 1, 0, 1, 1, 0, 1, 0, 1, 0, 1
    42,     43, 1, 0.07460528, 0.01426021,        0, 1.07387,       0,       0, 0, 0, 0, 0, 1, 1, 0, 1, 1, 0, 1, 0, 1, 0, 1
     5,     44, 1, 0.1353667, 0.02255707,        0, 1.00459,       0,       0, 0, 0, 0, 0, 1, 1, 0, 1, 1, 0, 1, 0, 1, 0, 1
    44,     22, 1, 0.1016686, 0.01654485,        0, 0.969948,       0,       0, 0, 0, 0, 0, 0, 1, 0, 1, 1, 0, 1, 0, 1, 0, 1
    22,     45, 1, 0.1839536, 0.03065344,        0, 1.00459,       0,       0, 0, 0, 0, 0, 1, 1, 0, 1, 1, 0, 1, 0, 1, 0, 1
     5,     46, 1, 0.04274444, 0.01300892,        0, 1.42028,       0,       0, 0, 0, 0, 0, 1, 1, 0, 1, 1, 0, 1, 0, 1, 0, 1
    23,     46, 1, 0.05267778, 0.01603205,        0, 1.42028,       0,       0, 0, 0, 0, 0, 0, 1, 0, 1, 1, 0, 1, 0, 1, 0, 1
     5,     47, 1, 0.5066778, 0.1542032,        0, 1.42028,       0,       0, 0, 0, 0, 0, 1, 1, 0, 1, 1, 0, 1, 0, 1, 0, 1
     5,     48, 1, 0.2636889, 0.08025155,        0, 1.42028,       0,       0, 0, 0, 0, 0, 1, 1, 0, 1, 1, 0, 1, 0, 1, 0, 1
    49,     48, 1, 0.07425556, 0.02259907,        0, 1.42028,       0,       0, 0, 0, 0, 0, 1, 1, 0, 1, 1, 0, 1, 0, 1, 0, 1
    50,     49, 1, 0.09985556, 0.03039022,        0, 1.42028,       0,       0, 0, 0, 0, 0, 1, 1, 0, 1, 1, 0, 1, 0, 1, 0, 1
    51,     50, 1, 0.1457111, 0.04434598,        0, 1.42028,       0,       0, 0, 0, 0, 0, 1, 1, 0, 1, 1, 0, 1, 0, 1, 0, 1
    52,     51, 1, 0.07556667, 0.02299809,        0, 1.42028,       0,       0, 0, 0, 0, 0, 1, 1, 0, 1, 1, 0, 1, 0, 1, 0, 1
    52,     17, 1,   0.1074, 0.03350705,        0, 1.42028,       0,       0, 0, 0, 0, 0, 0, 1, 0, 1, 1, 0, 1, 0, 1, 0, 1
    49,     53, 1, 0.109838, 0.01830305,        0, 1.00459,       0,       0, 0, 0, 0, 0, 1, 1, 0, 1, 1, 0, 1, 0, 1, 0, 1
    53,     54, 1, 0.2449167, 0.02436523,        0, 0.69282,       0,       0, 0, 0, 0, 0, 1, 1, 0, 1, 1, 0, 1, 0, 1, 0, 1
    55,     48, 1, 0.4164167, 0.0414267,        0, 0.69282,       0,       0, 0, 0, 0, 0, 1, 1, 0, 1, 1, 0, 1, 0, 1, 0, 1
     5,     56, 1,   0.0834, 0.0253821,        0, 1.42028,       0,       0, 0, 0, 0, 0, 1, 1, 0, 1, 1, 0, 1, 0, 1, 0, 1
    56,     57, 1, 0.1148903, 0.01863652,        0, 0.969948,       0,       0, 0, 0, 0, 0, 1, 1, 0, 1, 1, 0, 1, 0, 1, 0, 1
    57,     58, 1, 0.1573343, 0.02546228,        0, 0.969948,       0,       0, 0, 0, 0, 0, 1, 1, 0, 1, 1, 0, 1, 0, 1, 0, 1
    59,     58, 1, 0.5579583, 0.0555078,        0, 0.69282,       0,       0, 0, 0, 0, 0, 1, 1, 0, 1, 1, 0, 1, 0, 1, 0, 1
    57,     25, 1, 0.2190976, 0.04694619,        0, 0.969948,       0,       0, 0, 0, 0, 0, 0, 1, 0, 1, 1, 0, 1, 0, 1, 0, 1
    60,      2, 1, 0.08402153, 0.0466761,        0, 2.07846,       0,       0, 0, 0, 0, 0, 1, 1, 0, 1, 1, 0, 1, 0, 1, 0, 1
    61,     60, 1, 0.0304425, 0.01691159,        0, 2.07846,       0,       0, 0, 0, 0, 0, 1, 1, 0, 1, 1, 0, 1, 0, 1, 0, 1
    62,     61, 1, 0.02276069, 0.01264415,        0, 2.07846,       0,       0, 0, 0, 0, 0, 1, 1, 0, 1, 1, 0, 1, 0, 1, 0, 1
    63,      2, 1, 0.0502459, 0.02779055,        0, 1.80133,       0,       0, 0, 0, 0, 0, 1, 1, 0, 1, 1, 0, 1, 0, 1, 0, 1
    64,     63, 1, 0.09060441, 0.04927065,        0, 1.07387,       0,       0, 0, 0, 0, 0, 1, 1, 0, 1, 1, 0, 1, 0, 1, 0, 1
    65,     64, 1, 0.03673667, 0.01680752,        0, 1.83597,       0,       0, 0, 0, 0, 0, 1, 1, 0, 1, 1, 0, 1, 0, 1, 0, 1
    65,     66, 1, 0.02860823, 0.01443595,        0, 1.80133,       0,       0, 0, 0, 0, 0, 1, 1, 0, 1, 1, 0, 1, 0, 1, 0, 1
    67,     66, 1, 0.1653489, 0.03557755,        0, 1.03923,       0,       0, 0, 0, 0, 0, 0, 1, 0, 1, 1, 0, 1, 0, 1, 0, 1
    68,     67, 1, 0.1426714, 0.03071594,        0, 1.03923,       0,       0, 0, 0, 0, 0, 1, 1, 0, 1, 1, 0, 1, 0, 1, 0, 1
    64,     69, 1, 0.06430736, 0.03572438,        0, 2.07846,       0,       0, 0, 0, 0, 0, 1, 1, 0, 1, 1, 0, 1, 0, 1, 0, 1
    62,     69, 1, 0.07956847, 0.04420232,        0, 2.07846,       0,       0, 0, 0, 0, 0, 0, 1, 0, 1, 1, 0, 1, 0, 1, 0, 1
    69,     70, 1, 0.05461861, 0.02538581,        0, 1.80133,       0,       0, 0, 0, 0, 0, 1, 1, 0, 1, 1, 0, 1, 0, 1, 0, 1
    70,     71, 1, 0.0253566, 0.01139885,        0, 1.80133,       0,       0, 0, 0, 0, 0, 1, 1, 0, 1, 1, 0, 1, 0, 1, 0, 1
    72,      2, 1, 0.006648256, 0.003693276,        0, 8.31384,       0,       0, 0, 0, 0, 0, 1, 1, 0, 1, 1, 0, 1, 0, 1, 0, 1
    73,     74, 1, 0.05023069, 0.02790443,        0, 2.07846,       0,       0, 0, 0, 0, 0, 1, 1, 0, 1, 1, 0, 1, 0, 1, 0, 1
    74,      2, 1, 0.02573319, 0.01429545,        0, 2.07846,       0,       0, 0, 0, 0, 0, 1, 1, 0, 1, 1, 0, 1, 0, 1, 0, 1
    75,     73, 1, 0.01214208, 0.006888378,        0, 2.07846,       0,       0, 0, 0, 0, 0, 0, 1, 0, 1, 1, 0, 1, 0, 1, 0, 1
    72,     76, 1, 0.04905764, 0.02725277,        0, 2.07846,       0,       0, 0, 0, 0, 0, 1, 1, 0, 1, 1, 0, 1, 0, 1, 0, 1
    75,     76, 1, 0.04888444, 0.02744497,        0, 2.07846,       0,       0, 0, 0, 0, 0, 1, 1, 0, 1, 1, 0, 1, 0, 1, 0, 1
    77,      2, 1, 0.5744526, 0.1057895,        0, 0.831384,       0,       0, 0, 0, 0, 0, 1, 1, 0, 1, 1, 0, 1, 0, 1, 0, 1
    75,     77, 1, 0.2225369, 0.03692702,        0, 0.969948,       0,       0, 0, 0, 0, 0, 0, 1, 0, 1, 1, 0, 1, 0, 1, 0, 1
    75,     78, 1, 0.6470272, 0.1394366,        0, 0.969948,       0,       0, 0, 0, 0, 0, 1, 1, 0, 1, 1, 0, 1, 0, 1, 0, 1
    78,     79, 1, 0.2382828, 0.03936874,        0, 0.969948,       0,       0, 0, 0, 0, 0, 1, 1, 0, 1, 1, 0, 1, 0, 1, 0, 1
    80,     79, 1, 0.2473566, 0.04601211,        0, 0.969948,       0,       0, 0, 0, 0, 0, 1, 1, 0, 1, 1, 0, 1, 0, 1, 0, 1
    81,      2, 1, 0.04648933, 0.02582601,        0, 4.15692,       0,       0, 0, 0, 0, 0, 1, 1, 0, 1, 1, 0, 1, 0, 1, 0, 1
    77,     82, 1, 0.1543964, 0.02497141,        0, 0.969948,       0,       0, 0, 0, 0, 0, 1, 1, 0, 1, 1, 0, 1, 0, 1, 0, 1
    83,      3, 1, 0.07180194, 0.03728078,        0, 1.80133,       0,       0, 0, 0, 0, 0, 1, 1, 0, 1, 1, 0, 1, 0, 1, 0, 1
    83,     84, 1, 0.1456323, 0.03976002,        0, 1.21244,       0,       0, 0, 0, 0, 0, 1, 1, 0, 1, 1, 0, 1, 0, 1, 0, 1
    84,     85, 1,   0.0665, 0.02023873,        0, 1.42028,       0,       0, 0, 0, 0, 0, 1, 1, 0, 1, 1, 0, 1, 0, 1, 0, 1
    86,     85, 1, 0.1421106, 0.02716332,        0, 1.07387,       0,       0, 0, 0, 0, 0, 1, 1, 0, 1, 1, 0, 1, 0, 1, 0, 1
    87,     85, 1, 0.1089556, 0.03315973,        0, 1.42028,       0,       0, 0, 0, 0, 0, 1, 1, 0, 1, 1, 0, 1, 0, 1, 0, 1
    87,     88, 1, 0.1745835, 0.03101843,        0, 1.00459,       0,       0, 0, 0, 0, 0, 1, 1, 0, 1, 1, 0, 1, 0, 1, 0, 1
    88,     89, 1, 0.2029833, 0.03382448,        0, 1.00459,       0,       0, 0, 0, 0, 0, 1, 1, 0, 1, 1, 0, 1, 0, 1, 0, 1
    90,     87, 1, 0.03088889, 0.00940078,        0, 1.42028,       0,       0, 0, 0, 0, 0, 1, 1, 0, 1, 1, 0, 1, 0, 1, 0, 1
    91,     90, 1, 0.08986667, 0.02735018,        0, 1.42028,       0,       0, 0, 0, 0, 0, 1, 1, 0, 1, 1, 0, 1, 0, 1, 0, 1
    91,     92, 1, 0.1394175, 0.02661365,        0, 1.00459,       0,       0, 0, 0, 0, 0, 1, 1, 0, 1, 1, 0, 1, 0, 1, 0, 1
    93,     91, 1, 0.06913333, 0.02104016,        0, 1.42028,       0,       0, 0, 0, 0, 0, 1, 1, 0, 1, 1, 0, 1, 0, 1, 0, 1
    93,     94, 1, 0.08966667, 0.02728931,        0, 1.42028,       0,       0, 0, 0, 0, 0, 1, 1, 0, 1, 1, 0, 1, 0, 1, 0, 1
    95,     94, 1, 0.08597778, 0.02616663,        0, 1.42028,       0,       0, 0, 0, 0, 0, 1, 1, 0, 1, 1, 0, 1, 0, 1, 0, 1
    96,     95, 1, 0.1553778, 0.04728795,        0, 1.42028,       0,       0, 0, 0, 0, 0, 1, 1, 0, 1, 1, 0, 1, 0, 1, 0, 1
    97,     96, 1, 0.2534167, 0.02521084,        0, 0.69282,       0,       0, 0, 0, 0, 0, 1, 1, 0, 1, 1, 0, 1, 0, 1, 0, 1
    98,     96, 1, 0.1291125, 0.02151489,        0, 1.00459,       0,       0, 0, 0, 0, 0, 1, 1, 0, 1, 1, 0, 1, 0, 1, 0, 1
    99,     98, 1, 0.2049419, 0.03415086,        0, 1.00459,       0,       0, 0, 0, 0, 0, 1, 1, 0, 1, 1, 0, 1, 0, 1, 0, 1
    99,    100, 1, 0.3304167, 0.0328711,        0, 0.69282,       0,       0, 0, 0, 0, 0, 1, 1, 0, 1, 1, 0, 1, 0, 1, 0, 1
    84,    101, 1, 0.1861793, 0.03011184,        0, 0.969948,       0,       0, 0, 0, 0, 0, 1, 1, 0, 1, 1, 0, 1, 0, 1, 0, 1
   101,    102, 1, 0.1684628, 0.02725539,        0, 0.969948,       0,       0, 0, 0, 0, 0, 1, 1, 0, 1, 1, 0, 1, 0, 1, 0, 1
   103,    102, 1, 0.1430778, 0.04354455,        0, 1.42028,       0,       0, 0, 0, 0, 0, 1, 1, 0, 1, 1, 0, 1, 0, 1, 0, 1
   104,    103, 1, 0.362375, 0.03605043,        0, 0.69282,       0,       0, 0, 0, 0, 0, 1, 1, 0, 1, 1, 0, 1, 0, 1, 0, 1
   103,    105, 1, 0.1220793, 0.06792298,        0, 2.07846,       0,       0, 0, 0, 0, 0, 1, 1, 0, 1, 1, 0, 1, 0, 1, 0, 1
   106,    105, 1, 0.1537049, 0.02683127,        0, 1.00459,       0,       0, 0, 0, 0, 0, 1, 1, 0, 1, 1, 0, 1, 0, 1, 0, 1
   105,    107, 1, 0.06553049, 0.01564655,        0, 1.21244,       0,       0, 0, 0, 0, 0, 1, 1, 0, 1, 1, 0, 1, 0, 1, 0, 1
   107,    108, 1, 0.08789094, 0.01942715,        0, 1.21244,       0,       0, 0, 0, 0, 0, 1, 1, 0, 1, 1, 0, 1, 0, 1, 0, 1
   109,      3, 1, 0.3533774, 0.1777036,        0, 1.80133,       0,       0, 0, 0, 0, 0, 1, 1, 0, 1, 1, 0, 1, 0, 1, 0, 1
   109,    110, 1, 0.2214889, 0.06740833,        0, 1.42028,       0,       0, 0, 0, 0, 0, 1, 1, 0, 1, 1, 0, 1, 0, 1, 0, 1
   111,    110, 1, 0.07858889, 0.02391788,        0, 1.42028,       0,       0, 0, 0, 0, 0, 1, 1, 0, 1, 1, 0, 1, 0, 1, 0, 1
   111,    112, 1, 0.1081778, 0.03292302,        0, 1.42028,       0,       0, 0, 0, 0, 0, 1, 1, 0, 1, 1, 0, 1, 0, 1, 0, 1
   112,    113, 1, 0.1059222, 0.03223656,        0, 1.42028,       0,       0, 0, 0, 0, 0, 1, 1, 0, 1, 1, 0, 1, 0, 1, 0, 1
   114,    113, 1, 0.1004333, 0.03163617,        0, 1.42028,       0,       0, 0, 0, 0, 0, 1, 1, 0, 1, 1, 0, 1, 0, 1, 0, 1
   114,    115, 1, 0.1086115, 0.03410384,        0, 1.07387,       0,       0, 0, 0, 0, 0, 1, 1, 0, 1, 1, 0, 1, 0, 1, 0, 1
   115,    116, 1, 0.1291125, 0.02151489,        0, 1.00459,       0,       0, 0, 0, 0, 0, 1, 1, 0, 1, 1, 0, 1, 0, 1, 0, 1
   115,    117, 1, 0.09346667, 0.02844581,        0, 1.42028,       0,       0, 0, 0, 0, 0, 1, 1, 0, 1, 1, 0, 1, 0, 1, 0, 1
   117,    118, 1, 0.03895556, 0.0118558,        0, 1.42028,       0,       0, 0, 0, 0, 0, 1, 1, 0, 1, 1, 0, 1, 0, 1, 0, 1
   119,    118, 1, 0.1192268, 0.02466837,        0, 1.07387,       0,       0, 0, 0, 0, 0, 1, 1, 0, 1, 1, 0, 1, 0, 1, 0, 1
   119,    120, 1, 0.1353658, 0.02755199,        0, 1.07387,       0,       0, 0, 0, 0, 0, 1, 1, 0, 1, 1, 0, 1, 0, 1, 0, 1
   121,    120, 1, 0.2591222, 0.07886172,        0, 1.42028,       0,       0, 0, 0, 0, 0, 1, 1, 0, 1, 1, 0, 1, 0, 1, 0, 1
   122,    121, 1,  0.17948, 0.02990796,        0, 1.00459,       0,       0, 0, 0, 0, 0, 1, 1, 0, 1, 1, 0, 1, 0, 1, 0, 1
   114,    123, 1, 0.0645674, 0.01234155,        0, 1.07387,       0,       0, 0, 0, 0, 0, 1, 1, 0, 1, 1, 0, 1, 0, 1, 0, 1
   113,    124, 1, 0.08872222, 0.02700188,        0, 1.42028,       0,       0, 0, 0, 0, 0, 1, 1, 0, 1, 1, 0, 1, 0, 1, 0, 1
   124,    125, 1, 0.1555556, 0.04734206,        0, 1.42028,       0,       0, 0, 0, 0, 0, 1, 1, 0, 1, 1, 0, 1, 0, 1, 0, 1
   125,    126, 1, 0.1129889, 0.03438724,        0, 1.42028,       0,       0, 0, 0, 0, 0, 1, 1, 0, 1, 1, 0, 1, 0, 1, 0, 1
   127,    126, 1, 0.1367817, 0.03022583,        0, 0.969948,       0,       0, 0, 0, 0, 0, 1, 1, 0, 1, 1, 0, 1, 0, 1, 0, 1
   128,    127, 1, 0.08876819, 0.01917451,        0, 0.969948,       0,       0, 0, 0, 0, 0, 1, 1, 0, 1, 1, 0, 1, 0, 1, 0, 1
   128,    129, 1, 0.01631111, 0.005924956,        0, 1.62813,       0,       0, 0, 0, 0, 0, 1, 1, 0, 1, 1, 0, 1, 0, 1, 0, 1
    80,    110, 1,   0.2206, 0.0671378,        0, 1.42028,       0,       0, 0, 0, 0, 0, 0, 1, 0, 1, 1, 0, 1, 0, 1, 0, 1
    80,    130, 1, 0.4294167, 0.04271999,        0, 0.69282,       0,       0, 0, 0, 0, 0, 1, 1, 0, 1, 1, 0, 1, 0, 1, 0, 1
   131,    109, 1, 0.3260197, 0.05374142,        0, 0.969948,       0,       0, 0, 0, 0, 0, 1, 1, 0, 1, 1, 0, 1, 0, 1, 0, 1
   132,      3, 1, 0.1427853, 0.06869343,        0, 1.80133,       0,       0, 0, 0, 0, 0, 1, 1, 0, 1, 1, 0, 1, 0, 1, 0, 1
   133,    132, 1, 0.07723333, 0.02350533,        0, 1.42028,       0,       0, 0, 0, 0, 0, 1, 1, 0, 1, 1, 0, 1, 0, 1, 0, 1
   133,    134, 1,   0.1178, 0.03585146,        0, 1.42028,       0,       0, 0, 0, 0, 0, 1, 1, 0, 1, 1, 0, 1, 0, 1, 0, 1
   134,    135, 1, 0.08967778, 0.02729269,        0, 1.42028,       0,       0, 0, 0, 0, 0, 1, 1, 0, 1, 1, 0, 1, 0, 1, 0, 1
   135,    136, 1, 0.08434444, 0.02566954,        0, 1.42028,       0,       0, 0, 0, 0, 0, 1, 1, 0, 1, 1, 0, 1, 0, 1, 0, 1
   137,    136, 1, 0.1144222, 0.03482346,        0, 1.42028,       0,       0, 0, 0, 0, 0, 1, 1, 0, 1, 1, 0, 1, 0, 1, 0, 1
   137,    138, 1, 0.09536667, 0.02902406,        0, 1.42028,       0,       0, 0, 0, 0, 0, 1, 1, 0, 1, 1, 0, 1, 0, 1, 0, 1
   138,    139, 1,   0.0683, 0.02091101,        0, 1.42028,       0,       0, 0, 0, 0, 0, 1, 1, 0, 1, 1, 0, 1, 0, 1, 0, 1
   139,    140, 1, 0.1421667, 0.04410109,        0, 1.42028,       0,       0, 0, 0, 0, 0, 1, 1, 0, 1, 1, 0, 1, 0, 1, 0, 1
   140,    141, 1, 0.1379222, 0.0419755,        0, 1.42028,       0,       0, 0, 0, 0, 0, 1, 1, 0, 1, 1, 0, 1, 0, 1, 0, 1
   142,    141, 1, 0.09358889, 0.02848301,        0, 1.42028,       0,       0, 0, 0, 0, 0, 1, 1, 0, 1, 1, 0, 1, 0, 1, 0, 1
   142,    143, 1, 0.09841111, 0.02995061,        0, 1.42028,       0,       0, 0, 0, 0, 0, 1, 1, 0, 1, 1, 0, 1, 0, 1, 0, 1
   143,     95, 1, 0.1452111, 0.04419381,        0, 1.42028,       0,       0, 0, 0, 0, 0, 0, 1, 0, 1, 1, 0, 1, 0, 1, 0, 1
   144,    142, 1, 0.1683515, 0.02805355,        0, 1.00459,       0,       0, 0, 0, 0, 0, 1, 1, 0, 1, 1, 0, 1, 0, 1, 0, 1
   145,    144, 1, 0.3330833, 0.03313638,        0, 0.69282,       0,       0, 0, 0, 0, 0, 1, 1, 0, 1, 1, 0, 1, 0, 1, 0, 1
   146,    142, 1, 0.1067778, 0.03249694,        0, 1.42028,       0,       0, 0, 0, 0, 0, 1, 1, 0, 1, 1, 0, 1, 0, 1, 0, 1
   147,    146, 1, 0.09651111, 0.02937236,        0, 1.42028,       0,       0, 0, 0, 0, 0, 1, 1, 0, 1, 1, 0, 1, 0, 1, 0, 1
   146,    148, 1, 0.352625, 0.03508046,        0, 0.69282,       0,       0, 0, 0, 0, 0, 1, 1, 0, 1, 1, 0, 1, 0, 1, 0, 1
   141,    149, 1, 0.06477778, 0.01971458,        0, 1.42028,       0,       0, 0, 0, 0, 0, 1, 1, 0, 1, 1, 0, 1, 0, 1, 0, 1
   150,    149, 1, 0.1192444, 0.03629107,        0, 1.42028,       0,       0, 0, 0, 0, 0, 1, 1, 0, 1, 1, 0, 1, 0, 1, 0, 1
   150,    151, 1, 0.1680622, 0.02800533,        0, 1.00459,       0,       0, 0, 0, 0, 0, 1, 1, 0, 1, 1, 0, 1, 0, 1, 0, 1
   150,    152, 1, 0.08834444, 0.02688691,        0, 1.42028,       0,       0, 0, 0, 0, 0, 0, 1, 0, 1, 1, 0, 1, 0, 1, 0, 1
   152,    153, 1, 0.1281556, 0.03900309,        0, 1.42028,       0,       0, 0, 0, 0, 0, 1, 1, 0, 1, 1, 0, 1, 0, 1, 0, 1
   153,    154, 1, 0.01677826, 0.008928668,        0, 0.831384,       0,       0, 0, 0, 0, 0, 1, 1, 0, 1, 1, 0, 1, 0, 1, 0, 1
   155,    153, 1, 0.1206259, 0.0641919,        0, 0.831384,       0,       0, 0, 0, 0, 0, 1, 1, 0, 1, 1, 0, 1, 0, 1, 0, 1
   156,    153, 1, 0.09622222, 0.02928444,        0, 1.42028,       0,       0, 0, 0, 0, 0, 1, 1, 0, 1, 1, 0, 1, 0, 1, 0, 1
   156,    157, 1, 0.01627403, 0.01076344,        0, 1.07387,       0,       0, 0, 0, 0, 0, 1, 1, 0, 1, 1, 0, 1, 0, 1, 0, 1
   158,    156, 1, 0.1118863, 0.07400021,        0, 1.07387,       0,       0, 0, 0, 0, 0, 1, 1, 0, 1, 1, 0, 1, 0, 1, 0, 1
   158,    159, 1, 0.05662167, 0.00943525,        0, 1.00459,       0,       0, 0, 0, 0, 0, 1, 1, 0, 1, 1, 0, 1, 0, 1, 0, 1
   158,    160, 1, 0.09042153, 0.05980371,        0, 1.07387,       0,       0, 0, 0, 0, 0, 1, 1, 0, 1, 1, 0, 1, 0, 1, 0, 1
   161,    159, 1, 0.5150417, 0.05123829,        0, 0.69282,       0,       0, 0, 0, 0, 0, 1, 1, 0, 1, 1, 0, 1, 0, 1, 0, 1
   162,    161, 1, 0.1413316, 0.02355104,        0, 1.00459,       0,       0, 0, 0, 0, 0, 1, 1, 0, 1, 1, 0, 1, 0, 1, 0, 1
   160,    163, 1, 0.02248906, 0.02270182,        0, 1.45492,       0,       0, 0, 0, 0, 0, 1, 1, 0, 1, 1, 0, 1, 0, 1, 0, 1
   160,    147, 1, 0.05934063, 0.03966512,        0, 1.42028,       0,       0, 0, 0, 0, 0, 1, 1, 0, 1, 1, 0, 1, 0, 1, 0, 1
   155,    164, 1, 0.1028194, 0.05471607,        0, 0.831384,       0,       0, 0, 0, 0, 0, 1, 1, 0, 1, 1, 0, 1, 0, 1, 0, 1
   155,    165, 1, 0.1549302, 0.08244717,        0, 0.831384,       0,       0, 0, 0, 0, 0, 1, 1, 0, 1, 1, 0, 1, 0, 1, 0, 1
   166,    136, 1, 0.249375, 0.02480876,        0, 0.69282,       0,       0, 0, 0, 0, 0, 1, 1, 0, 1, 1, 0, 1, 0, 1, 0, 1
   167,      3, 1, 0.04201931, 0.0233428,        0, 2.07846,       0,       0, 0, 0, 0, 0, 1, 1, 0, 1, 1, 0, 1, 0, 1, 0, 1
   168,    167, 1,   0.0206, 0.009225701,        0, 1.80133,       0,       0, 0, 0, 0, 0, 1, 1, 0, 1, 1, 0, 1, 0, 1, 0, 1
   169,    168, 1, 0.05680021, 0.02575331,        0, 1.80133,       0,       0, 0, 0, 0, 0, 1, 1, 0, 1, 1, 0, 1, 0, 1, 0, 1
   169,    170, 1, 0.06043382, 0.02724197,        0, 1.80133,       0,       0, 0, 0, 0, 0, 1, 1, 0, 1, 1, 0, 1, 0, 1, 0, 1
   170,    171, 1, 0.07496826, 0.03372772,        0, 1.80133,       0,       0, 0, 0, 0, 0, 1, 1, 0, 1, 1, 0, 1, 0, 1, 0, 1
   172,      3, 1, 0.1832042, 0.1243194,        0, 4.71118,       0,       0, 0, 0, 0, 0, 1, 1, 0, 1, 1, 0, 1, 0, 1, 0, 1
   173,    172, 1, 0.06443333, 0.01960976,        0, 1.42028,       0,       0, 0, 0, 0, 0, 1, 1, 0, 1, 1, 0, 1, 0, 1, 0, 1
   174,    172, 1, 0.06728889, 0.02047882,        0, 1.42028,       0,       0, 0, 0, 0, 0, 1, 1, 0, 1, 1, 0, 1, 0, 1, 0, 1
   175,    172, 1, 0.03294444, 0.01002637,        0, 1.42028,       0,       0, 0, 0, 0, 0, 1, 1, 0, 1, 1, 0, 1, 0, 1, 0, 1
   176,    172, 1, 0.001111111, 0.000338158,        0, 1.42028,       0,       0, 0, 0, 0, 0, 1, 1, 0, 1, 1, 0, 1, 0, 1, 0, 1
   177,    172, 1, 0.03491111, 0.01062491,        0, 1.42028,       0,       0, 0, 0, 0, 0, 1, 1, 0, 1, 1, 0, 1, 0, 1, 0, 1
   178,      3, 1, 0.4002992, 0.1736519,        0,  1.5242,       0,       0, 0, 0, 0, 0, 1, 1, 0, 1, 1, 0, 1, 0, 1, 0, 1
   179,    178, 1, 0.08670597, 0.03936907,        0, 1.80133,       0,       0, 0, 0, 0, 0, 1, 1, 0, 1, 1, 0, 1, 0, 1, 0, 1
   179,    180, 1, 0.05242486, 0.01969004,        0, 1.42028,       0,       0, 0, 0, 0, 0, 0, 1, 0, 1, 1, 0, 1, 0, 1, 0, 1
   179,    181, 1, 0.04505556, 0.01371229,        0, 1.42028,       0,       0, 0, 0, 0, 0, 1, 1, 0, 1, 1, 0, 1, 0, 1, 0, 1
   181,    182, 1, 0.04331576, 0.01814401,        0, 1.42028,       0,       0, 0, 0, 0, 0, 1, 1, 0, 1, 1, 0, 1, 0, 1, 0, 1
   182,    183, 1, 0.1197778, 0.03645338,        0, 1.42028,       0,       0, 0, 0, 0, 0, 1, 1, 0, 1, 1, 0, 1, 0, 1, 0, 1
   183,    184, 1, 0.1079889, 0.03286553,        0, 1.42028,       0,       0, 0, 0, 0, 0, 1, 1, 0, 1, 1, 0, 1, 0, 1, 0, 1
   184,    185, 1, 0.07792222, 0.02371499,        0, 1.42028,       0,       0, 0, 0, 0, 0, 1, 1, 0, 1, 1, 0, 1, 0, 1, 0, 1
   186,    185, 1, 0.1426556, 0.04341605,        0, 1.42028,       0,       0, 0, 0, 0, 0, 1, 1, 0, 1, 1, 0, 1, 0, 1, 0, 1
   186,    187, 1, 0.2222439, 0.03633132,        0, 0.969948,       0,       0, 0, 0, 0, 0, 1, 1, 0, 1, 1, 0, 1, 0, 1, 0, 1
   187,    188, 1, 0.07072222, 0.02152373,        0, 1.42028,       0,       0, 0, 0, 0, 0, 1, 1, 0, 1, 1, 0, 1, 0, 1, 0, 1
   189,    188, 1, 0.08897778, 0.02707966,        0, 1.42028,       0,       0, 0, 0, 0, 0, 1, 1, 0, 1, 1, 0, 1, 0, 1, 0, 1
   189,    190, 1, 0.1001778, 0.03048828,        0, 1.42028,       0,       0, 0, 0, 0, 0, 1, 1, 0, 1, 1, 0, 1, 0, 1, 0, 1
   191,    190, 1, 0.2102416, 0.05613208,        0, 1.07387,       0,       0, 0, 0, 0, 0, 1, 1, 0, 1, 1, 0, 1, 0, 1, 0, 1
...
0 / END OF BRANCH DATA, BEGIN TRANSFORMER DATA
     1,      2, 0, 1, 1, 1, 1, 0, 0, 2, '            ', 1, 1, 1, 0, 1, 0, 1, 0, 1, '            '
0.000289183, 0.000475417, 16.6667
    1, 0,     0, 53.0008,       0,       0, 0, 0, 1.1, 0.9, 1.1, 0.9, 33, 0, 0, 0, 0
    1, 0
...